resultados/08_votacao_multifolha/alimentador_geometria_cemig/linecodes_extraido.dss
New "Linecode.1191_1" nphases=1 basefreq=60 r1=0.3257 x1=0.5911 units=km normamps=559.00
New "Linecode.1192_1" nphases=1 basefreq=60 r1=0.975 x1=0.5244 units=km normamps=265.20
New "Linecode.1193_1" nphases=1 basefreq=60 r1=1.551 x1=0.5207 units=km normamps=197.60
New "Linecode.1220_1" nphases=1 basefreq=60 r1=2.2949 x1=0.0821 units=km normamps=152.00
New "Linecode.1222_1" nphases=1 basefreq=60 r1=0.975 x1=0.5244 units=km normamps=265.20
New "Linecode.1241_1" nphases=1 basefreq=60 r1=1.551 x1=0.5207 units=km normamps=197.60
New "Linecode.1248_1" nphases=1 basefreq=60 r1=1.564 x1=0.4853 units=km normamps=178.10
New "Linecode.147_3" nphases=3 basefreq=60 r1=0.8054 x1=0.2687 units=km normamps=183.30
New "Linecode.157_3" nphases=3 basefreq=60 r1=0.8054 x1=0.2687 units=km normamps=183.30
New "Linecode.293_3" nphases=3 basefreq=60 r1=1.564 x1=0.4853 units=km normamps=178.10
New "Linecode.320_3" nphases=3 basefreq=60 r1=0.975 x1=0.5244 units=km normamps=265.20
New "Linecode.335_3" nphases=3 basefreq=60 r1=0.3186 x1=0.2348 units=km normamps=309.40
New "Linecode.35_3" nphases=3 basefreq=60 r1=0.975 x1=0.5244 units=km normamps=265.20
New "Linecode.38_3" nphases=3 basefreq=60 r1=0.975 x1=0.5244 units=km normamps=265.20
New "Linecode.40_3" nphases=3 basefreq=60 r1=0.975 x1=0.5244 units=km normamps=265.20
New "Linecode.42_3" nphases=3 basefreq=60 r1=0.15 x1=0.089 units=km normamps=290.00
New "Linecode.43_3" nphases=3 basefreq=60 r1=0.3257 x1=0.5911 units=km normamps=559.00
New "Linecode.46_3" nphases=3 basefreq=60 r1=1.551 x1=0.5207 units=km normamps=197.60
New "Linecode.48_3" nphases=3 basefreq=60 r1=0.975 x1=0.5244 units=km normamps=265.20
New "Linecode.59_3" nphases=3 basefreq=60 r1=0.3257 x1=0.5911 units=km normamps=559.00
New "Linecode.70_3" nphases=3 basefreq=60 r1=0.15 x1=0.089 units=km normamps=290.00
New "Linecode.748_3" nphases=3 basefreq=60 r1=2.469 x1=0.507 units=km normamps=146.90
New "Linecode.773_3" nphases=3 basefreq=60 r1=1.551 x1=0.5207 units=km normamps=197.60
New "Linecode.77_3" nphases=3 basefreq=60 r1=0.2006 x1=0.7049 units=km normamps=748.80
New "Linecode.78_3" nphases=3 basefreq=60 r1=0.65 x1=0.631 units=km normamps=357.50
New "Linecode.86_3" nphases=3 basefreq=60 r1=0.8054 x1=0.2687 units=km normamps=183.30
